ARB_GBA01F3_2019/UConBTTDBrenda.dss
! UNIDADES CONSUMIDORAS DE BAIXA TENSAO NO TRANSFORMADOR DE DISTRIBUICAO
! Tranformador de Distribuicao: F33001
New Load.1075254 Bus1=90888BF33001.2.3.0 Phases=2 model=8 ZIPV=[0.5 0 0.5 0 0 1 0] Kv=0.220 kW=15.7 PF=0.92 conn=wye
! Tranformador de Distribuicao: F33001
New Load.1642617 Bus1=90888BF33001.1.2.0 Phases=2 model=8 ZIPV=[0.5 0 0.5 0 0 1 0] Kv=0.220 kW=2.07 PF=0.92 conn=wye
! Tranformador de Distribuicao: F33001
New Load.2968975 Bus1=90888BF33001.1.2.3.0 Phases=3 model=8 ZIPV=[0.5 0 0.5 0 0 1 0] Kv=0.220 kW=10.0 PF=0.92 conn=wye
! Tranformador de Distribuicao: F33001
New Load.3630614 Bus1=90888BF33001.1.2.3.0 Phases=3 model=8 ZIPV=[0.5 0 0.5 0 0 1 0] Kv=0.220 kW=16.91 PF=0.92 conn=wye
! Tranformador de Distribuicao: F33001
New Load.3823021 Bus1=90888BF33001.1.2.0 Phases=2 model=8 ZIPV=[0.5 0 0.5 0 0 1 0] Kv=0.220 kW=6.0 PF=0.92 conn=wye
! Tranformador de Distribuicao: F33308
New Load.434054 Bus1=104310440BF33308.1.2.3.0 Phases=3 model=8 ZIPV=[0.5 0 0.5 0 0 1 0] Kv=0.220 kW=2.93 PF=0.92 conn=wye
! Tranformador de Distribuicao: F33308
New Load.2894254 Bus1=104310440BF33308.1.2.3.0 Phases=3 model=8 ZIPV=[0.5 0 0.5 0 0 1 0] Kv=0.220 kW=12.5 PF=0.92 conn=wye
! Tranformador de Distribuicao: F33308
New Load.3494488 Bus1=104310440BF33308.1.2.3.0 Phases=3 model=8 ZIPV=[0.5 0 0.5 0 0 1 0] Kv=0.220 kW=1.0 PF=0.92 conn=wye
! Tranformador de Distribuicao: F33308
New Load.3819499 Bus1=104310440BF33308.1.2.3.0 Phases=3 model=8 ZIPV=[0.5 0 0.5 0 0 1 0] Kv=0.220 kW=12.05 PF=0.92 conn=wye
! Tranformador de Distribuicao: F33308
New Load.5320794 Bus1=104310440BF33308.1.2.3.0 Phases=3 model=8 ZIPV=[0.5 0 0.5 0 0 1 0] Kv=0.220 kW=20.78 PF=0.92 conn=wye
! Tranformador de Distribuicao: F33513
New Load.252 Bus1=104301339BF33513.1.2.3.0 Phases=3 model=8 ZIPV=[0.5 0 0.5 0 0 1 0] Kv=0.220 kW=8.03 PF=0.92 conn=wye
! Tranformador de Distribuicao: F33513
New Load.1236383 Bus1=104301339BF33513.1.0 Phases=1 model=8 ZIPV=[0.5 0 0.5 0 0 1 0] Kv=0.127 kW=8.315 PF=0.92 conn=wye
! Tranformador de Distribuicao: F33513
New Load.1475034 Bus1=104301339BF33513.1.2.3.0 Phases=3 model=8 ZIPV=[0.5 0 0.5 0 0 1 0] Kv=0.220 kW=1.72 PF=0.92 conn=wye
! Tranformador de Distribuicao: F33513
New Load.1643096 Bus1=104301339BF33513.1.2.3.0 Phases=3 model=8 ZIPV=[0.5 0 0.5 0 0 1 0] Kv=0.220 kW=13.0 PF=0.92 conn=wye
! Tranformador de Distribuicao: F33513
New Load.2233677 Bus1=104301339BF33513.3.1.0 Phases=2 model=8 ZIPV=[0.5 0 0.5 0 0 1 0] Kv=0.220 kW=8.28 PF=0.92 conn=wye
! Tranformador de Distribuicao: F33513
New Load.2261565 Bus1=104301339BF33513.1.2.3.0 Phases=3 model=8 ZIPV=[0.5 0 0.5 0 0 1 0] Kv=0.220 kW=1.13 PF=0.92 conn=wye
! Tranformador de Distribuicao: F33513
New Load.2312817 Bus1=104301339BF33513.3.1.0 Phases=2 model=8 ZIPV=[0.5 0 0.5 0 0 1 0] Kv=0.220 kW=10.5 PF=0.92 conn=wye
! Tranformador de Distribuicao: F33513
New Load.2417422 Bus1=104301339BF33513.1.2.3.0 Phases=3 model=8 ZIPV=[0.5 0 0.5 0 0 1 0] Kv=0.220 kW=9.39 PF=0.92 conn=wye
! Tranformador de Distribuicao: F33513
New Load.2638880 Bus1=104301339BF33513.1.2.0 Phases=2 model=8 ZIPV=[0.5 0 0.5 0 0 1 0] Kv=0.220 kW=7.99 PF=0.92 conn=wye
! Tranformador de Distribuicao: F33513
New Load.3595478 Bus1=104301339BF33513.1.2.3.0 Phases=3 model=8 ZIPV=[0.5 0 0.5 0 0 1 0] Kv=0.220 kW=13.0 PF=0.92 conn=wye
! Tranformador de Distribuicao: F33513
New Load.3867382 Bus1=104301339BF33513.1.2.0 Phases=2 model=8 ZIPV=[0.5 0 0.5 0 0 1 0] Kv=0.220 kW=15.0 PF=0.92 conn=wye
! Tranformador de Distribuicao: F33513
New Load.4062881 Bus1=104301339BF33513.1.2.3.0 Phases=3 model=8 ZIPV=[0.5 0 0.5 0 0 1 0] Kv=0.220 kW=9.55 PF=0.92 conn=wye
! Tranformador de Distribuicao: F33513
New Load.4375995 Bus1=104301339BF33513.1.2.3.0 Phases=3 model=8 ZIPV=[0.5 0 0.5 0 0 1 0] Kv=0.220 kW=8.38 PF=0.92 conn=wye
! Tranformador de Distribuicao: F33513
New Load.5137071 Bus1=104301339BF33513.2.3.0 Phases=2 model=8 ZIPV=[0.5 0 0.5 0 0 1 0] Kv=0.220 kW=13.57 PF=0.92 conn=wye
! Tranformador de Distribuicao: F33513
New Load.5564748 Bus1=104301339BF33513.1.2.3.0 Phases=3 model=8 ZIPV=[0.5 0 0.5 0 0 1 0] Kv=0.220 kW=11.04 PF=0.92 conn=wye
! Tranformador de Distribuicao: F33513
New Load.5577886 Bus1=104301339BF33513.1.2.0 Phases=2 model=8 ZIPV=[0.5 0 0.5 0 0 1 0] Kv=0.220 kW=4.74 PF=0.92 conn=wye
! Tranformador de Distribuicao: F33513
New Load.5707936 Bus1=104301339BF33513.2.3.0 Phases=2 model=8 ZIPV=[0.5 0 0.5 0 0 1 0] Kv=0.220 kW=12.67 PF=0.92 conn=wye
! Tranformador de Distribuicao: F33513
New Load.5925147 Bus1=104301339BF33513.2.3.0 Phases=2 model=8 ZIPV=[0.5 0 0.5 0 0 1 0] Kv=0.220 kW=13.57 PF=0.92 conn=wye
! Tranformador de Distribuicao: F33514
New Load.31217 Bus1=104301347BF33514.1.2.3.0 Phases=3 model=8 ZIPV=[0.5 0 0.5 0 0 1 0] Kv=0.220 kW=14.59 PF=0.92 conn=wye
! Tranformador de Distribuicao: F33514
New Load.199356 Bus1=104301347BF33514.1.2.3.0 Phases=3 model=8 ZIPV=[0.5 0 0.5 0 0 1 0] Kv=0.220 kW=9.71 PF=0.92 conn=wye
! Tranformador de Distribuicao: F33514
New Load.736829 Bus1=104301347BF33514.1.2.3.0 Phases=3 model=8 ZIPV=[0.5 0 0.5 0 0 1 0] Kv=0.220 kW=4.97 PF=0.92 conn=wye
! Tranformador de Distribuicao: F33514
New Load.784344 Bus1=104301347BF33514.1.2.3.0 Phases=3 model=8 ZIPV=[0.5 0 0.5 0 0 1 0] Kv=0.220 kW=13.64 PF=0.92 conn=wye
! Tranformador de Distribuicao: F33514
New Load.1263583 Bus1=104301347BF33514.1.2.3.0 Phases=3 model=8 ZIPV=[0.5 0 0.5 0 0 1 0] Kv=0.220 kW=12.91 PF=0.92 conn=wye
! Tranformador de Distribuicao: F33514
New Load.1355415 Bus1=104301347BF33514.1.2.3.0 Phases=3 model=8 ZIPV=[0.5 0 0.5 0 0 1 0] Kv=0.220 kW=7.94 PF=0.92 conn=wye
! Tranformador de Distribuicao: F33514
New Load.1495898 Bus1=104301347BF33514.1.2.3.0 Phases=3 model=8 ZIPV=[0.5 0 0.5 0 0 1 0] Kv=0.220 kW=10.94 PF=0.92 conn=wye
! Tranformador de Distribuicao: F33514
New Load.1682225 Bus1=104301347BF33514.1.2.3.0 Phases=3 model=8 ZIPV=[0.5 0 0.5 0 0 1 0] Kv=0.220 kW=18.96 PF=0.92 conn=wye
! Tranformador de Distribuicao: F33514
New Load.1729020 Bus1=104301347BF33514.1.2.3.0 Phases=3 model=8 ZIPV=[0.5 0 0.5 0 0 1 0] Kv=0.220 kW=12.63 PF=0.92 conn=wye
! Tranformador de Distribuicao: F33514
New Load.1937020 Bus1=104301347BF33514.1.2.3.0 Phases=3 model=8 ZIPV=[0.5 0 0.5 0 0 1 0] Kv=0.220 kW=6.38 PF=0.92 conn=wye
! Tranformador de Distribuicao: F33514
New Load.2135735 Bus1=104301347BF33514.1.2.3.0 Phases=3 model=8 ZIPV=[0.5 0 0.5 0 0 1 0] Kv=0.220 kW=4.82 PF=0.92 conn=wye
! Tranformador de Distribuicao: F33514
New Load.2355300 Bus1=104301347BF33514.1.2.0 Phases=2 model=8 ZIPV=[0.5 0 0.5 0 0 1 0] Kv=0.220 kW=10.29 PF=0.92 conn=wye
! Tranformador de Distribuicao: F33514
New Load.2611061 Bus1=104301347BF33514.1.2.3.0 Phases=3 model=8 ZIPV=[0.5 0 0.5 0 0 1 0] Kv=0.220 kW=11.44 PF=0.92 conn=wye
! Tranformador de Distribuicao: F33514
New Load.3265078 Bus1=104301347BF33514.1.2.3.0 Phases=3 model=8 ZIPV=[0.5 0 0.5 0 0 1 0] Kv=0.220 kW=15.0 PF=0.92 conn=wye
! Tranformador de Distribuicao: F33514
New Load.3314340 Bus1=104301347BF33514.1.0 Phases=1 model=8 ZIPV=[0.5 0 0.5 0 0 1 0] Kv=0.127 kW=4.59 PF=0.92 conn=wye
! Tranformador de Distribuicao: F33514
New Load.3458532 Bus1=104301347BF33514.1.2.0 Phases=2 model=8 ZIPV=[0.5 0 0.5 0 0 1 0] Kv=0.220 kW=13.59 PF=0.92 conn=wye
! Tranformador de Distribuicao: F33514
New Load.4013084 Bus1=104301347BF33514.1.2.3.0 Phases=3 model=8 ZIPV=[0.5 0 0.5 0 0 1 0] Kv=0.220 kW=14.72 PF=0.92 conn=wye
! Tranformador de Distribuicao: F33514
New Load.4356780 Bus1=104301347BF33514.1.2.3.0 Phases=3 model=8 ZIPV=[0.5 0 0.5 0 0 1 0] Kv=0.220 kW=12.84 PF=0.92 conn=wye
! Tranformador de Distribuicao: F33514
New Load.4360501 Bus1=104301347BF33514.1.2.3.0 Phases=3 model=8 ZIPV=[0.5 0 0.5 0 0 1 0] Kv=0.220 kW=13.04 PF=0.92 conn=wye
! Tranformador de Distribuicao: F33514
New Load.4536961 Bus1=104301347BF33514.1.2.3.0 Phases=3 model=8 ZIPV=[0.5 0 0.5 0 0 1 0] Kv=0.220 kW=6.28 PF=0.92 conn=wye
! Tranformador de Distribuicao: F33514
New Load.5460097 Bus1=104301347BF33514.1.2.3.0 Phases=3 model=8 ZIPV=[0.5 0 0.5 0 0 1 0] Kv=0.220 kW=12.62 PF=0.92 conn=wye
! Tranformador de Distribuicao: F33514
New Load.5738130 Bus1=104301347BF33514.1.2.3.0 Phases=3 model=8 ZIPV=[0.5 0 0.5 0 0 1 0] Kv=0.220 kW=19.13 PF=0.92 conn=wye
! Tranformador de Distribuicao: F33514
New Load.5791106 Bus1=104301347BF33514.1.2.0 Phases=2 model=8 ZIPV=[0.5 0 0.5 0 0 1 0] Kv=0.220 kW=1.96 PF=0.92 conn=wye
! Tranformador de Distribuicao: F33515
New Load.127265 Bus1=104301361BF33515.1.2.3.0 Phases=3 model=8 ZIPV=[0.5 0 0.5 0 0 1 0] Kv=0.220 kW=7.12 PF=0.92 conn=wye
! Tranformador de Distribuicao: F33515
New Load.135025 Bus1=104301361BF33515.1.2.3.0 Phases=3 model=8 ZIPV=[0.5 0 0.5 0 0 1 0] Kv=0.220 kW=14.99 PF=0.92 conn=wye
! Tranformador de Distribuicao: F33515
New Load.186235 Bus1=104301361BF33515.1.2.3.0 Phases=3 model=8 ZIPV=[0.5 0 0.5 0 0 1 0] Kv=0.220 kW=15.0 PF=0.92 conn=wye
! Tranformador de Distribuicao: F33515
New Load.388415 Bus1=104301361BF33515.1.2.3.0 Phases=3 model=8 ZIPV=[0.5 0 0.5 0 0 1 0] Kv=0.220 kW=12.41 PF=0.92 conn=wye
! Tranformador de Distribuicao: F33515
New Load.610226 Bus1=104301361BF33515.1.2.3.0 Phases=3 model=8 ZIPV=[0.5 0 0.5 0 0 1 0] Kv=0.220 kW=14.75 PF=0.92 conn=wye
! Tranformador de Distribuicao: F33515
New Load.1393873 Bus1=104301361BF33515.1.2.3.0 Phases=3 model=8 ZIPV=[0.5 0 0.5 0 0 1 0] Kv=0.220 kW=11.02 PF=0.92 conn=wye
! Tranformador de Distribuicao: F33515
New Load.2249956 Bus1=104301361BF33515.1.2.3.0 Phases=3 model=8 ZIPV=[0.5 0 0.5 0 0 1 0] Kv=0.220 kW=14.74 PF=0.92 conn=wye
! Tranformador de Distribuicao: F33515
New Load.2264019 Bus1=104301361BF33515.1.2.3.0 Phases=3 model=8 ZIPV=[0.5 0 0.5 0 0 1 0] Kv=0.220 kW=144.43 PF=0.92 conn=wye
! Tranformador de Distribuicao: F33515
New Load.2498246 Bus1=104301361BF33515.1.2.3.0 Phases=3 model=8 ZIPV=[0.5 0 0.5 0 0 1 0] Kv=0.220 kW=15.01 PF=0.92 conn=wye
! Tranformador de Distribuicao: F33515
New Load.2950074 Bus1=104301361BF33515.1.2.3.0 Phases=3 model=8 ZIPV=[0.5 0 0.5 0 0 1 0] Kv=0.220 kW=12.0 PF=0.92 conn=wye
! Tranformador de Distribuicao: F33515
New Load.3692025 Bus1=104301361BF33515.1.2.3.0 Phases=3 model=8 ZIPV=[0.5 0 0.5 0 0 1 0] Kv=0.220 kW=15.0 PF=0.92 conn=wye
! Tranformador de Distribuicao: F33515
New Load.4369532 Bus1=104301361BF33515.1.2.3.0 Phases=3 model=8 ZIPV=[0.5 0 0.5 0 0 1 0] Kv=0.220 kW=14.87 PF=0.92 conn=wye
! Tranformador de Distribuicao: F33515
New Load.4489814 Bus1=104301361BF33515.1.2.3.0 Phases=3 model=8 ZIPV=[0.5 0 0.5 0 0 1 0] Kv=0.220 kW=37.61 PF=0.92 conn=wye
! Tranformador de Distribuicao: F33515
New Load.5623372 Bus1=104301361BF33515.1.2.3.0 Phases=3 model=8 ZIPV=[0.5 0 0.5 0 0 1 0] Kv=0.220 kW=13.995 PF=0.92 conn=wye
! Tranformador de Distribuicao: F33515
New Load.5820718 Bus1=104301361BF33515.1.2.3.0 Phases=3 model=8 ZIPV=[0.5 0 0.5 0 0 1 0] Kv=0.220 kW=11.82 PF=0.92 conn=wye
! Tranformador de Distribuicao: F33515
New Load.5974484 Bus1=104301361BF33515.1.2.3.0 Phases=3 model=8 ZIPV=[0.5 0 0.5 0 0 1 0] Kv=0.220 kW=15.0 PF=0.92 conn=wye
! Tranformador de Distribuicao: F33516
New Load.464289 Bus1=104301374BF33516.1.2.3.0 Phases=3 model=8 ZIPV=[0.5 0 0.5 0 0 1 0] Kv=0.220 kW=14.84 PF=0.92 conn=wye
! Tranformador de Distribuicao: F33516
New Load.555496 Bus1=104301374BF33516.1.2.0 Phases=2 model=8 ZIPV=[0.5 0 0.5 0 0 1 0] Kv=0.220 kW=13.48 PF=0.92 conn=wye
! Tranformador de Distribuicao: F33516
New Load.872316 Bus1=104301374BF33516.1.2.3.0 Phases=3 model=8 ZIPV=[0.5 0 0.5 0 0 1 0] Kv=0.220 kW=15.0 PF=0.92 conn=wye
! Tranformador de Distribuicao: F33516
New Load.1412453 Bus1=104301374BF33516.1.2.3.0 Phases=3 model=8 ZIPV=[0.5 0 0.5 0 0 1 0] Kv=0.220 kW=11.46 PF=0.92 conn=wye
! Tranformador de Distribuicao: F33516
New Load.1431526 Bus1=104301374BF33516.1.2.3.0 Phases=3 model=8 ZIPV=[0.5 0 0.5 0 0 1 0] Kv=0.220 kW=13.86 PF=0.92 conn=wye
! Tranformador de Distribuicao: F33516
New Load.1497900 Bus1=104301374BF33516.1.2.3.0 Phases=3 model=8 ZIPV=[0.5 0 0.5 0 0 1 0] Kv=0.220 kW=11.14 PF=0.92 conn=wye
! Tranformador de Distribuicao: F33516
New Load.1805611 Bus1=104301374BF33516.1.2.3.0 Phases=3 model=8 ZIPV=[0.5 0 0.5 0 0 1 0] Kv=0.220 kW=10.19 PF=0.92 conn=wye
! Tranformador de Distribuicao: F33516
New Load.2109436 Bus1=104301374BF33516.1.2.3.0 Phases=3 model=8 ZIPV=[0.5 0 0.5 0 0 1 0] Kv=0.220 kW=5.3 PF=0.92 conn=wye
! Tranformador de Distribuicao: F33516
New Load.2306843 Bus1=104301374BF33516.1.2.3.0 Phases=3 model=8 ZIPV=[0.5 0 0.5 0 0 1 0] Kv=0.220 kW=1.4 PF=0.92 conn=wye
! Tranformador de Distribuicao: F33516
New Load.2413475 Bus1=104301374BF33516.1.2.3.0 Phases=3 model=8 ZIPV=[0.5 0 0.5 0 0 1 0] Kv=0.220 kW=1.85 PF=0.92 conn=wye
! Tranformador de Distribuicao: F33516
New Load.2761993 Bus1=104301374BF33516.1.2.3.0 Phases=3 model=8 ZIPV=[0.5 0 0.5 0 0 1 0] Kv=0.220 kW=12.21 PF=0.92 conn=wye
! Tranformador de Distribuicao: F33516
New Load.3173220 Bus1=104301374BF33516.1.2.3.0 Phases=3 model=8 ZIPV=[0.5 0 0.5 0 0 1 0] Kv=0.220 kW=15.0 PF=0.92 conn=wye
! Tranformador de Distribuicao: F33516
New Load.3568945 Bus1=104301374BF33516.1.2.3.0 Phases=3 model=8 ZIPV=[0.5 0 0.5 0 0 1 0] Kv=0.220 kW=7.29 PF=0.92 conn=wye
! Tranformador de Distribuicao: F33516
New Load.4224016 Bus1=104301374BF33516.1.2.3.0 Phases=3 model=8 ZIPV=[0.5 0 0.5 0 0 1 0] Kv=0.220 kW=14.47 PF=0.92 conn=wye
! Tranformador de Distribuicao: F33516
New Load.4230842 Bus1=104301374BF33516.1.2.3.0 Phases=3 model=8 ZIPV=[0.5 0 0.5 0 0 1 0] Kv=0.220 kW=1.55 PF=0.92 conn=wye
! Tranformador de Distribuicao: F33516
New Load.4303497 Bus1=104301374BF33516.1.2.0 Phases=2 model=8 ZIPV=[0.5 0 0.5 0 0 1 0] Kv=0.220 kW=14.64 PF=0.92 conn=wye
! Tranformador de Distribuicao: F33516
New Load.4457447 Bus1=104301374BF33516.1.2.3.0 Phases=3 model=8 ZIPV=[0.5 0 0.5 0 0 1 0] Kv=0.220 kW=14.56 PF=0.92 conn=wye
! Tranformador de Distribuicao: F33516
New Load.4570921 Bus1=104301374BF33516.1.2.3.0 Phases=3 model=8 ZIPV=[0.5 0 0.5 0 0 1 0] Kv=0.220 kW=5.25 PF=0.92 conn=wye
! Tranformador de Distribuicao: F33516
New Load.4692708 Bus1=104301374BF33516.1.2.3.0 Phases=3 model=8 ZIPV=[0.5 0 0.5 0 0 1 0] Kv=0.220 kW=14.79 PF=0.92 conn=wye
! Tranformador de Distribuicao: F33516
New Load.4984321 Bus1=104301374BF33516.1.2.3.0 Phases=3 model=8 ZIPV=[0.5 0 0.5 0 0 1 0] Kv=0.220 kW=11.94 PF=0.92 conn=wye
! Tranformador de Distribuicao: F33516
New Load.5525228 Bus1=104301374BF33516.1.2.3.0 Phases=3 model=8 ZIPV=[0.5 0 0.5 0 0 1 0] Kv=0.220 kW=5.17 PF=0.92 conn=wye
! Tranformador de Distribuicao: F33516
New Load.5778435 Bus1=104301374BF33516.1.2.3.0 Phases=3 model=8 ZIPV=[0.5 0 0.5 0 0 1 0] Kv=0.220 kW=9.07 PF=0.92 conn=wye
! Tranformador de Distribuicao: F33516
New Load.6047529 Bus1=104301374BF33516.1.2.3.0 Phases=3 model=8 ZIPV=[0.5 0 0.5 0 0 1 0] Kv=0.220 kW=5.25 PF=0.92 conn=wye
! Tranformador de Distribuicao: F33769
New Load.592319 Bus1=440876BF33769.2.0 Phases=1 model=8 ZIPV=[0.5 0 0.5 0 0 1 0] Kv=0.127 kW=1.8 PF=0.92 conn=wye
! Tranformador de Distribuicao: F33769
New Load.852443 Bus1=440876BF33769.2.3.0 Phases=2 model=8 ZIPV=[0.5 0 0.5 0 0 1 0] Kv=0.220 kW=9.45 PF=0.92 conn=wye
! Tranformador de Distribuicao: F33769
New Load.981622 Bus1=440876BF33769.3.1.0 Phases=2 model=8 ZIPV=[0.5 0 0.5 0 0 1 0] Kv=0.220 kW=9.45 PF=0.92 conn=wye
! Tranformador de Distribuicao: F33769
New Load.1339596 Bus1=440876BF33769.1.2.0 Phases=2 model=8 ZIPV=[0.5 0 0.5 0 0 1 0] Kv=0.220 kW=12.0 PF=0.92 conn=wye
! Tranformador de Distribuicao: F33769
New Load.1419511 Bus1=440876BF33769.1.2.3.0 Phases=3 model=8 ZIPV=[0.5 0 0.5 0 0 1 0] Kv=0.220 kW=8.14 PF=0.92 conn=wye
! Tranformador de Distribuicao: F33769
New Load.1758506 Bus1=440876BF33769.1.2.0 Phases=2 model=8 ZIPV=[0.5 0 0.5 0 0 1 0] Kv=0.220 kW=9.45 PF=0.92 conn=wye
! Tranformador de Distribuicao: F33769
New Load.1864950 Bus1=440876BF33769.3.1.0 Phases=2 model=8 ZIPV=[0.5 0 0.5 0 0 1 0] Kv=0.220 kW=9.45 PF=0.92 conn=wye
! Tranformador de Distribuicao: F33769
New Load.1915748 Bus1=440876BF33769.3.0 Phases=1 model=8 ZIPV=[0.5 0 0.5 0 0 1 0] Kv=0.127 kW=1.8 PF=0.92 conn=wye
! Tranformador de Distribuicao: F33769
New Load.1956121 Bus1=440876BF33769.1.2.0 Phases=2 model=8 ZIPV=[0.5 0 0.5 0 0 1 0] Kv=0.220 kW=11.08 PF=0.92 conn=wye
! Tranformador de Distribuicao: F33769
New Load.2656977 Bus1=440876BF33769.1.2.0 Phases=2 model=8 ZIPV=[0.5 0 0.5 0 0 1 0] Kv=0.220 kW=9.45 PF=0.92 conn=wye
! Tranformador de Distribuicao: F33769
New Load.2831035 Bus1=440876BF33769.2.0 Phases=1 model=8 ZIPV=[0.5 0 0.5 0 0 1 0] Kv=0.127 kW=3.1 PF=0.92 conn=wye
! Tranformador de Distribuicao: F33769
New Load.4034585 Bus1=440876BF33769.2.0 Phases=1 model=8 ZIPV=[0.5 0 0.5 0 0 1 0] Kv=0.127 kW=1.8 PF=0.92 conn=wye
! Tranformador de Distribuicao: F33769
New Load.4356747 Bus1=440876BF33769.2.3.0 Phases=2 model=8 ZIPV=[0.5 0 0.5 0 0 1 0] Kv=0.220 kW=9.45 PF=0.92 conn=wye
! Tranformador de Distribuicao: F33769
New Load.4494850 Bus1=440876BF33769.1.2.0 Phases=2 model=8 ZIPV=[0.5 0 0.5 0 0 1 0] Kv=0.220 kW=9.45 PF=0.92 conn=wye
! Tranformador de Distribuicao: F33769
New Load.4793873 Bus1=440876BF33769.3.1.0 Phases=2 model=8 ZIPV=[0.5 0 0.5 0 0 1 0] Kv=0.220 kW=9.45 PF=0.92 conn=wye
! Tranformador de Distribuicao: F33769
New Load.4921166 Bus1=440876BF33769.1.2.3.0 Phases=3 model=8 ZIPV=[0.5 0 0.5 0 0 1 0] Kv=0.220 kW=11.07 PF=0.92 conn=wye
! Tranformador de Distribuicao: F33769
New Load.4931506 Bus1=440876BF33769.1.2.0 Phases=2 model=8 ZIPV=[0.5 0 0.5 0 0 1 0] Kv=0.220 kW=9.45 PF=0.92 conn=wye
! Tranformador de Distribuicao: F33769
New Load.5033590 Bus1=440876BF33769.2.3.0 Phases=2 model=8 ZIPV=[0.5 0 0.5 0 0 1 0] Kv=0.220 kW=13.695 PF=0.92 conn=wye
! Tranformador de Distribuicao: F33769
New Load.5182623 Bus1=440876BF33769.2.3.0 Phases=2 model=8 ZIPV=[0.5 0 0.5 0 0 1 0] Kv=0.220 kW=9.45 PF=0.92 conn=wye
! Tranformador de Distribuicao: F33769
New Load.5339218 Bus1=440876BF33769.1.2.0 Phases=2 model=8 ZIPV=[0.5 0 0.5 0 0 1 0] Kv=0.220 kW=11.0 PF=0.92 conn=wye
! Tranformador de Distribuicao: F33769
New Load.5420218 Bus1=440876BF33769.1.2.0 Phases=2 model=8 ZIPV=[0.5 0 0.5 0 0 1 0] Kv=0.220 kW=13.14 PF=0.92 conn=wye
! Tranformador de Distribuicao: F33769
New Load.5731657 Bus1=440876BF33769.1.2.0 Phases=2 model=8 ZIPV=[0.5 0 0.5 0 0 1 0] Kv=0.220 kW=9.45 PF=0.92 conn=wye
! Tranformador de Distribuicao: F33769
New Load.6230374 Bus1=440876BF33769.3.1.0 Phases=2 model=8 ZIPV=[0.5 0 0.5 0 0 1 0] Kv=0.220 kW=9.45 PF=0.92 conn=wye
! Tranformador de Distribuicao: F38422
New Load.689512 Bus1=12054628BF38422.1.2.3.0 Phases=3 model=8 ZIPV=[0.5 0 0.5 0 0 1 0] Kv=0.220 kW=3.88 PF=0.92 conn=wye
! Tranformador de Distribuicao: F38588
New Load.900654 Bus1=91471BF38588.1.2.0 Phases=2 model=8 ZIPV=[0.5 0 0.5 0 0 1 0] Kv=0.220 kW=10.9 PF=0.92 conn=wye
! Tranformador de Distribuicao: F38588
New Load.986546 Bus1=91471BF38588.1.2.3.0 Phases=3 model=8 ZIPV=[0.5 0 0.5 0 0 1 0] Kv=0.220 kW=15.0 PF=0.92 conn=wye
! Tranformador de Distribuicao: F38588
New Load.1306462 Bus1=91471BF38588.3.1.0 Phases=2 model=8 ZIPV=[0.5 0 0.5 0 0 1 0] Kv=0.220 kW=9.44 PF=0.92 conn=wye
! Tranformador de Distribuicao: F38588
New Load.1367904 Bus1=91471BF38588.2.3.0 Phases=2 model=8 ZIPV=[0.5 0 0.5 0 0 1 0] Kv=0.220 kW=3.0 PF=0.92 conn=wye
! Tranformador de Distribuicao: F38588
New Load.2951941 Bus1=91471BF38588.2.0 Phases=1 model=8 ZIPV=[0.5 0 0.5 0 0 1 0] Kv=0.127 kW=7.39 PF=0.92 conn=wye
! Tranformador de Distribuicao: F38588
New Load.4968919 Bus1=91471BF38588.1.2.0 Phases=2 model=8 ZIPV=[0.5 0 0.5 0 0 1 0] Kv=0.220 kW=8.0 PF=0.92 conn=wye
! Tranformador de Distribuicao: F42110
New Load.930821 Bus1=104146704BF42110.1.0 Phases=1 model=8 ZIPV=[0.5 0 0.5 0 0 1 0] Kv=0.127 kW=0.25 PF=0.92 conn=wye
! Tranformador de Distribuicao: F42110
New Load.1450285 Bus1=104146704BF42110.1.2.3.0 Phases=3 model=8 ZIPV=[0.5 0 0.5 0 0 1 0] Kv=0.220 kW=8.0 PF=0.92 conn=wye
! Tranformador de Distribuicao: F42110
New Load.3617437 Bus1=104146704BF42110.1.0 Phases=1 model=8 ZIPV=[0.5 0 0.5 0 0 1 0] Kv=0.127 kW=2.0 PF=0.92 conn=wye
! Tranformador de Distribuicao: F42110
New Load.4242254 Bus1=104146704BF42110.2.0 Phases=1 model=8 ZIPV=[0.5 0 0.5 0 0 1 0] Kv=0.127 kW=2.0 PF=0.92 conn=wye
! Tranformador de Distribuicao: F42111
New Load.49975 Bus1=94042BF42111.3.1.0 Phases=2 model=8 ZIPV=[0.5 0 0.5 0 0 1 0] Kv=0.220 kW=10.1 PF=0.92 conn=wye
! Tranformador de Distribuicao: F42111
New Load.109746 Bus1=94042BF42111.2.3.0 Phases=2 model=8 ZIPV=[0.5 0 0.5 0 0 1 0] Kv=0.220 kW=2.01 PF=0.92 conn=wye
! Tranformador de Distribuicao: F42111
New Load.393722 Bus1=94042BF42111.1.2.0 Phases=2 model=8 ZIPV=[0.5 0 0.5 0 0 1 0] Kv=0.220 kW=10.1 PF=0.92 conn=wye
! Tranformador de Distribuicao: F42111
New Load.501198 Bus1=94042BF42111.3.1.0 Phases=2 model=8 ZIPV=[0.5 0 0.5 0 0 1 0] Kv=0.220 kW=8.82 PF=0.92 conn=wye
! Tranformador de Distribuicao: F42111
New Load.531260 Bus1=94042BF42111.1.2.0 Phases=2 model=8 ZIPV=[0.5 0 0.5 0 0 1 0] Kv=0.220 kW=10.1 PF=0.92 conn=wye
! Tranformador de Distribuicao: F42111
New Load.573047 Bus1=94042BF42111.1.2.0 Phases=2 model=8 ZIPV=[0.5 0 0.5 0 0 1 0] Kv=0.220 kW=1.72 PF=0.92 conn=wye
! Tranformador de Distribuicao: F42111
New Load.594353 Bus1=94042BF42111.1.2.3.0 Phases=3 model=8 ZIPV=[0.5 0 0.5 0 0 1 0] Kv=0.220 kW=6.04 PF=0.92 conn=wye
! Tranformador de Distribuicao: F42111
New Load.646709 Bus1=94042BF42111.3.1.0 Phases=2 model=8 ZIPV=[0.5 0 0.5 0 0 1 0] Kv=0.220 kW=10.1 PF=0.92 conn=wye
! Tranformador de Distribuicao: F42111
New Load.747139 Bus1=94042BF42111.3.1.0 Phases=2 model=8 ZIPV=[0.5 0 0.5 0 0 1 0] Kv=0.220 kW=10.1 PF=0.92 conn=wye
! Tranformador de Distribuicao: F42111
New Load.1108805 Bus1=94042BF42111.2.3.0 Phases=2 model=8 ZIPV=[0.5 0 0.5 0 0 1 0] Kv=0.220 kW=10.1 PF=0.92 conn=wye
! Tranformador de Distribuicao: F42111
New Load.1373481 Bus1=94042BF42111.2.3.0 Phases=2 model=8 ZIPV=[0.5 0 0.5 0 0 1 0] Kv=0.220 kW=10.1 PF=0.92 conn=wye
! Tranformador de Distribuicao: F42111
New Load.1381823 Bus1=94042BF42111.1.2.3.0 Phases=3 model=8 ZIPV=[0.5 0 0.5 0 0 1 0] Kv=0.220 kW=9.8 PF=0.92 conn=wye
! Tranformador de Distribuicao: F42111
New Load.1457017 Bus1=94042BF42111.3.1.0 Phases=2 model=8 ZIPV=[0.5 0 0.5 0 0 1 0] Kv=0.220 kW=1.0 PF=0.92 conn=wye
! Tranformador de Distribuicao: F42111
New Load.1473165 Bus1=94042BF42111.3.1.0 Phases=2 model=8 ZIPV=[0.5 0 0.5 0 0 1 0] Kv=0.220 kW=10.1 PF=0.92 conn=wye
! Tranformador de Distribuicao: F42111
New Load.1510232 Bus1=94042BF42111.2.3.0 Phases=2 model=8 ZIPV=[0.5 0 0.5 0 0 1 0] Kv=0.220 kW=10.1 PF=0.92 conn=wye
! Tranformador de Distribuicao: F42111
New Load.1599490 Bus1=94042BF42111.2.3.0 Phases=2 model=8 ZIPV=[0.5 0 0.5 0 0 1 0] Kv=0.220 kW=10.1 PF=0.92 conn=wye
! Tranformador de Distribuicao: F42111
New Load.1959533 Bus1=94042BF42111.1.2.0 Phases=2 model=8 ZIPV=[0.5 0 0.5 0 0 1 0] Kv=0.220 kW=10.1 PF=0.92 conn=wye
! Tranformador de Distribuicao: F42111
New Load.2126108 Bus1=94042BF42111.1.2.0 Phases=2 model=8 ZIPV=[0.5 0 0.5 0 0 1 0] Kv=0.220 kW=10.1 PF=0.92 conn=wye
! Tranformador de Distribuicao: F42111
New Load.2143054 Bus1=94042BF42111.3.1.0 Phases=2 model=8 ZIPV=[0.5 0 0.5 0 0 1 0] Kv=0.220 kW=10.1 PF=0.92 conn=wye
! Tranformador de Distribuicao: F42111
New Load.2211953 Bus1=94042BF42111.2.3.0 Phases=2 model=8 ZIPV=[0.5 0 0.5 0 0 1 0] Kv=0.220 kW=10.1 PF=0.92 conn=wye
! Tranformador de Distribuicao: F42111
New Load.2298011 Bus1=94042BF42111.1.2.0 Phases=2 model=8 ZIPV=[0.5 0 0.5 0 0 1 0] Kv=0.220 kW=10.1 PF=0.92 conn=wye
! Tranformador de Distribuicao: F42111
New Load.2504037 Bus1=94042BF42111.3.1.0 Phases=2 model=8 ZIPV=[0.5 0 0.5 0 0 1 0] Kv=0.220 kW=10.1 PF=0.92 conn=wye
! Tranformador de Distribuicao: F42111
New Load.2595551 Bus1=94042BF42111.1.2.0 Phases=2 model=8 ZIPV=[0.5 0 0.5 0 0 1 0] Kv=0.220 kW=10.1 PF=0.92 conn=wye
! Tranformador de Distribuicao: F42111
New Load.2618995 Bus1=94042BF42111.3.1.0 Phases=2 model=8 ZIPV=[0.5 0 0.5 0 0 1 0] Kv=0.220 kW=10.1 PF=0.92 conn=wye
! Tranformador de Distribuicao: F42111
New Load.2645610 Bus1=94042BF42111.1.2.0 Phases=2 model=8 ZIPV=[0.5 0 0.5 0 0 1 0] Kv=0.220 kW=10.1 PF=0.92 conn=wye
! Tranformador de Distribuicao: F42111
New Load.2749423 Bus1=94042BF42111.1.2.0 Phases=2 model=8 ZIPV=[0.5 0 0.5 0 0 1 0] Kv=0.220 kW=10.1 PF=0.92 conn=wye
! Tranformador de Distribuicao: F42111
New Load.2852526 Bus1=94042BF42111.1.2.0 Phases=2 model=8 ZIPV=[0.5 0 0.5 0 0 1 0] Kv=0.220 kW=10.1 PF=0.92 conn=wye
! Tranformador de Distribuicao: F42111
New Load.2933744 Bus1=94042BF42111.2.3.0 Phases=2 model=8 ZIPV=[0.5 0 0.5 0 0 1 0] Kv=0.220 kW=10.1 PF=0.92 conn=wye
! Tranformador de Distribuicao: F42111
New Load.3052112 Bus1=94042BF42111.1.2.3.0 Phases=3 model=8 ZIPV=[0.5 0 0.5 0 0 1 0] Kv=0.220 kW=12.41 PF=0.92 conn=wye
! Tranformador de Distribuicao: F42111
New Load.3365184 Bus1=94042BF42111.1.2.0 Phases=2 model=8 ZIPV=[0.5 0 0.5 0 0 1 0] Kv=0.220 kW=10.1 PF=0.92 conn=wye
! Tranformador de Distribuicao: F42111
New Load.3537401 Bus1=94042BF42111.1.2.0 Phases=2 model=8 ZIPV=[0.5 0 0.5 0 0 1 0] Kv=0.220 kW=10.1 PF=0.92 conn=wye
! Tranformador de Distribuicao: F42111
New Load.3553455 Bus1=94042BF42111.3.1.0 Phases=2 model=8 ZIPV=[0.5 0 0.5 0 0 1 0] Kv=0.220 kW=0.0 PF=0.92 conn=wye
! Tranformador de Distribuicao: F42111
New Load.3641610 Bus1=94042BF42111.1.2.0 Phases=2 model=8 ZIPV=[0.5 0 0.5 0 0 1 0] Kv=0.220 kW=10.1 PF=0.92 conn=wye
! Tranformador de Distribuicao: F42111
New Load.3660056 Bus1=94042BF42111.1.0 Phases=1 model=8 ZIPV=[0.5 0 0.5 0 0 1 0] Kv=0.127 kW=0.2 PF=0.92 conn=wye
! Tranformador de Distribuicao: F42111
New Load.3688617 Bus1=94042BF42111.2.3.0 Phases=2 model=8 ZIPV=[0.5 0 0.5 0 0 1 0] Kv=0.220 kW=7.66 PF=0.92 conn=wye
! Tranformador de Distribuicao: F42111
New Load.3733902 Bus1=94042BF42111.1.2.0 Phases=2 model=8 ZIPV=[0.5 0 0.5 0 0 1 0] Kv=0.220 kW=10.1 PF=0.92 conn=wye
! Tranformador de Distribuicao: F42111
New Load.3769005 Bus1=94042BF42111.1.2.0 Phases=2 model=8 ZIPV=[0.5 0 0.5 0 0 1 0] Kv=0.220 kW=20.0 PF=0.92 conn=wye
! Tranformador de Distribuicao: F42111
New Load.3965668 Bus1=94042BF42111.1.2.0 Phases=2 model=8 ZIPV=[0.5 0 0.5 0 0 1 0] Kv=0.220 kW=10.1 PF=0.92 conn=wye
! Tranformador de Distribuicao: F42111
New Load.4091853 Bus1=94042BF42111.1.0 Phases=1 model=8 ZIPV=[0.5 0 0.5 0 0 1 0] Kv=0.127 kW=1.0 PF=0.92 conn=wye
! Tranformador de Distribuicao: F42111
New Load.4162984 Bus1=94042BF42111.1.2.0 Phases=2 model=8 ZIPV=[0.5 0 0.5 0 0 1 0] Kv=0.220 kW=10.1 PF=0.92 conn=wye
! Tranformador de Distribuicao: F42111
New Load.4188334 Bus1=94042BF42111.3.1.0 Phases=2 model=8 ZIPV=[0.5 0 0.5 0 0 1 0] Kv=0.220 kW=10.1 PF=0.92 conn=wye
! Tranformador de Distribuicao: F42111
New Load.4612649 Bus1=94042BF42111.1.2.0 Phases=2 model=8 ZIPV=[0.5 0 0.5 0 0 1 0] Kv=0.220 kW=10.1 PF=0.92 conn=wye
! Tranformador de Distribuicao: F42111
New Load.4698263 Bus1=94042BF42111.2.3.0 Phases=2 model=8 ZIPV=[0.5 0 0.5 0 0 1 0] Kv=0.220 kW=4.64 PF=0.92 conn=wye
! Tranformador de Distribuicao: F42111
New Load.4798262 Bus1=94042BF42111.2.3.0 Phases=2 model=8 ZIPV=[0.5 0 0.5 0 0 1 0] Kv=0.220 kW=10.1 PF=0.92 conn=wye
! Tranformador de Distribuicao: F42111
New Load.4889406 Bus1=94042BF42111.1.2.0 Phases=2 model=8 ZIPV=[0.5 0 0.5 0 0 1 0] Kv=0.220 kW=10.1 PF=0.92 conn=wye
! Tranformador de Distribuicao: F42111
New Load.4987596 Bus1=94042BF42111.2.3.0 Phases=2 model=8 ZIPV=[0.5 0 0.5 0 0 1 0] Kv=0.220 kW=10.1 PF=0.92 conn=wye
! Tranformador de Distribuicao: F42111
New Load.5004821 Bus1=94042BF42111.2.3.0 Phases=2 model=8 ZIPV=[0.5 0 0.5 0 0 1 0] Kv=0.220 kW=10.1 PF=0.92 conn=wye
! Tranformador de Distribuicao: F42111
New Load.5324621 Bus1=94042BF42111.2.3.0 Phases=2 model=8 ZIPV=[0.5 0 0.5 0 0 1 0] Kv=0.220 kW=10.1 PF=0.92 conn=wye
! Tranformador de Distribuicao: F42111
New Load.5519550 Bus1=94042BF42111.2.3.0 Phases=2 model=8 ZIPV=[0.5 0 0.5 0 0 1 0] Kv=0.220 kW=10.1 PF=0.92 conn=wye
! Tranformador de Distribuicao: F42111
New Load.5557747 Bus1=94042BF42111.3.1.0 Phases=2 model=8 ZIPV=[0.5 0 0.5 0 0 1 0] Kv=0.220 kW=10.1 PF=0.92 conn=wye
! Tranformador de Distribuicao: F42111
New Load.5681433 Bus1=94042BF42111.1.0 Phases=1 model=8 ZIPV=[0.5 0 0.5 0 0 1 0] Kv=0.127 kW=0.96 PF=0.92 conn=wye
! Tranformador de Distribuicao: F42111
New Load.5698810 Bus1=94042BF42111.1.0 Phases=1 model=8 ZIPV=[0.5 0 0.5 0 0 1 0] Kv=0.127 kW=1.87 PF=0.92 conn=wye
! Tranformador de Distribuicao: F42111
New Load.5801280 Bus1=94042BF42111.2.3.0 Phases=2 model=8 ZIPV=[0.5 0 0.5 0 0 1 0] Kv=0.220 kW=10.1 PF=0.92 conn=wye
! Tranformador de Distribuicao: F42111
New Load.5943367 Bus1=94042BF42111.3.1.0 Phases=2 model=8 ZIPV=[0.5 0 0.5 0 0 1 0] Kv=0.220 kW=10.1 PF=0.92 conn=wye
! Tranformador de Distribuicao: F42113
New Load.403613 Bus1=94043BF42113.1.2.0 Phases=2 model=8 ZIPV=[0.5 0 0.5 0 0 1 0] Kv=0.220 kW=10.2 PF=0.92 conn=wye
! Tranformador de Distribuicao: F42113
New Load.593591 Bus1=94043BF42113.1.2.0 Phases=2 model=8 ZIPV=[0.5 0 0.5 0 0 1 0] Kv=0.220 kW=10.2 PF=0.92 conn=wye
! Tranformador de Distribuicao: F42113
New Load.910488 Bus1=94043BF42113.1.2.0 Phases=2 model=8 ZIPV=[0.5 0 0.5 0 0 1 0] Kv=0.220 kW=10.2 PF=0.92 conn=wye
! Tranformador de Distribuicao: F42113
New Load.1025445 Bus1=94043BF42113.3.1.0 Phases=2 model=8 ZIPV=[0.5 0 0.5 0 0 1 0] Kv=0.220 kW=0.0 PF=0.92 conn=wye
! Tranformador de Distribuicao: F42113
New Load.1965602 Bus1=94043BF42113.1.0 Phases=1 model=8 ZIPV=[0.5 0 0.5 0 0 1 0] Kv=0.127 kW=1.0 PF=0.92 conn=wye
! Tranformador de Distribuicao: F42113
New Load.2061363 Bus1=94043BF42113.3.1.0 Phases=2 model=8 ZIPV=[0.5 0 0.5 0 0 1 0] Kv=0.220 kW=3.3 PF=0.92 conn=wye
! Tranformador de Distribuicao: F42113
New Load.2583416 Bus1=94043BF42113.2.3.0 Phases=2 model=8 ZIPV=[0.5 0 0.5 0 0 1 0] Kv=0.220 kW=14.215 PF=0.92 conn=wye
! Tranformador de Distribuicao: F42113
New Load.2787854 Bus1=94043BF42113.3.1.0 Phases=2 model=8 ZIPV=[0.5 0 0.5 0 0 1 0] Kv=0.220 kW=10.2 PF=0.92 conn=wye
! Tranformador de Distribuicao: F42113
New Load.2906081 Bus1=94043BF42113.1.0 Phases=1 model=8 ZIPV=[0.5 0 0.5 0 0 1 0] Kv=0.127 kW=2.0 PF=0.92 conn=wye
! Tranformador de Distribuicao: F42113
New Load.2990151 Bus1=94043BF42113.1.2.0 Phases=2 model=8 ZIPV=[0.5 0 0.5 0 0 1 0] Kv=0.220 kW=2.94 PF=0.92 conn=wye
! Tranformador de Distribuicao: F42113
New Load.3516792 Bus1=94043BF42113.1.2.0 Phases=2 model=8 ZIPV=[0.5 0 0.5 0 0 1 0] Kv=0.220 kW=13.71 PF=0.92 conn=wye
! Tranformador de Distribuicao: F42113
New Load.4089994 Bus1=94043BF42113.1.0 Phases=1 model=8 ZIPV=[0.5 0 0.5 0 0 1 0] Kv=0.127 kW=2.3 PF=0.92 conn=wye
! Tranformador de Distribuicao: F42113
New Load.4481575 Bus1=94043BF42113.2.3.0 Phases=2 model=8 ZIPV=[0.5 0 0.5 0 0 1 0] Kv=0.220 kW=11.2 PF=0.92 conn=wye
! Tranformador de Distribuicao: F42113
New Load.4859522 Bus1=94043BF42113.3.1.0 Phases=2 model=8 ZIPV=[0.5 0 0.5 0 0 1 0] Kv=0.220 kW=5.0 PF=0.92 conn=wye
! Tranformador de Distribuicao: F42113
New Load.5060909 Bus1=94043BF42113.1.0 Phases=1 model=8 ZIPV=[0.5 0 0.5 0 0 1 0] Kv=0.127 kW=5.0 PF=0.92 conn=wye
! Tranformador de Distribuicao: F42113
New Load.5405535 Bus1=94043BF42113.1.2.3.0 Phases=3 model=8 ZIPV=[0.5 0 0.5 0 0 1 0] Kv=0.220 kW=16.096 PF=0.92 conn=wye
! Tranformador de Distribuicao: F42113
New Load.5415437 Bus1=94043BF42113.1.2.0 Phases=2 model=8 ZIPV=[0.5 0 0.5 0 0 1 0] Kv=0.220 kW=9.0 PF=0.92 conn=wye
! Tranformador de Distribuicao: F42113
New Load.5476951 Bus1=94043BF42113.3.1.0 Phases=2 model=8 ZIPV=[0.5 0 0.5 0 0 1 0] Kv=0.220 kW=11.05 PF=0.92 conn=wye
! Tranformador de Distribuicao: F42113
New Load.6037362 Bus1=94043BF42113.3.1.0 Phases=2 model=8 ZIPV=[0.5 0 0.5 0 0 1 0] Kv=0.220 kW=12.0 PF=0.92 conn=wye
! Tranformador de Distribuicao: F42113
New Load.6223184 Bus1=94043BF42113.3.1.0 Phases=2 model=8 ZIPV=[0.5 0 0.5 0 0 1 0] Kv=0.220 kW=10.2 PF=0.92 conn=wye
! Tranformador de Distribuicao: F42115
New Load.28973 Bus1=94057BF42115.3.1.0 Phases=2 model=8 ZIPV=[0.5 0 0.5 0 0 1 0] Kv=0.220 kW=7.945 PF=0.92 conn=wye
! Tranformador de Distribuicao: F42115
New Load.151787 Bus1=94057BF42115.3.1.0 Phases=2 model=8 ZIPV=[0.5 0 0.5 0 0 1 0] Kv=0.220 kW=15.0 PF=0.92 conn=wye
! Tranformador de Distribuicao: F42115
New Load.157610 Bus1=94057BF42115.1.2.3.0 Phases=3 model=8 ZIPV=[0.5 0 0.5 0 0 1 0] Kv=0.220 kW=7.2 PF=0.92 conn=wye
! Tranformador de Distribuicao: F42115
New Load.387814 Bus1=94057BF42115.1.2.3.0 Phases=3 model=8 ZIPV=[0.5 0 0.5 0 0 1 0] Kv=0.220 kW=8.49 PF=0.92 conn=wye
! Tranformador de Distribuicao: F42115
New Load.393018 Bus1=94057BF42115.1.2.3.0 Phases=3 model=8 ZIPV=[0.5 0 0.5 0 0 1 0] Kv=0.220 kW=12.89 PF=0.92 conn=wye
! Tranformador de Distribuicao: F42115
New Load.633840 Bus1=94057BF42115.1.2.3.0 Phases=3 model=8 ZIPV=[0.5 0 0.5 0 0 1 0] Kv=0.220 kW=15.0 PF=0.92 conn=wye
! Tranformador de Distribuicao: F42115
New Load.778574 Bus1=94057BF42115.1.2.3.0 Phases=3 model=8 ZIPV=[0.5 0 0.5 0 0 1 0] Kv=0.220 kW=13.04 PF=0.92 conn=wye
! Tranformador de Distribuicao: F42115
New Load.1117565 Bus1=94057BF42115.1.2.3.0 Phases=3 model=8 ZIPV=[0.5 0 0.5 0 0 1 0] Kv=0.220 kW=11.74 PF=0.92 conn=wye
! Tranformador de Distribuicao: F42115
New Load.1304845 Bus1=94057BF42115.1.2.3.0 Phases=3 model=8 ZIPV=[0.5 0 0.5 0 0 1 0] Kv=0.220 kW=24.69 PF=0.92 conn=wye
! Tranformador de Distribuicao: F42115
New Load.1475008 Bus1=94057BF42115.1.2.0 Phases=2 model=8 ZIPV=[0.5 0 0.5 0 0 1 0] Kv=0.220 kW=12.56 PF=0.92 conn=wye
! Tranformador de Distribuicao: F42115
New Load.1743914 Bus1=94057BF42115.1.2.3.0 Phases=3 model=8 ZIPV=[0.5 0 0.5 0 0 1 0] Kv=0.220 kW=13.05 PF=0.92 conn=wye
! Tranformador de Distribuicao: F42115
New Load.1917223 Bus1=94057BF42115.1.2.0 Phases=2 model=8 ZIPV=[0.5 0 0.5 0 0 1 0] Kv=0.220 kW=9.79 PF=0.92 conn=wye
! Tranformador de Distribuicao: F42115
New Load.2023304 Bus1=94057BF42115.1.2.0 Phases=2 model=8 ZIPV=[0.5 0 0.5 0 0 1 0] Kv=0.220 kW=7.51 PF=0.92 conn=wye
! Tranformador de Distribuicao: F42115
New Load.2664430 Bus1=94057BF42115.3.1.0 Phases=2 model=8 ZIPV=[0.5 0 0.5 0 0 1 0] Kv=0.220 kW=12.5 PF=0.92 conn=wye
! Tranformador de Distribuicao: F42115
New Load.2764453 Bus1=94057BF42115.1.2.3.0 Phases=3 model=8 ZIPV=[0.5 0 0.5 0 0 1 0] Kv=0.220 kW=6.39 PF=0.92 conn=wye
! Tranformador de Distribuicao: F42115
New Load.2828252 Bus1=94057BF42115.1.2.3.0 Phases=3 model=8 ZIPV=[0.5 0 0.5 0 0 1 0] Kv=0.220 kW=13.91 PF=0.92 conn=wye
! Tranformador de Distribuicao: F42115
New Load.3269981 Bus1=94057BF42115.1.2.0 Phases=2 model=8 ZIPV=[0.5 0 0.5 0 0 1 0] Kv=0.220 kW=6.04 PF=0.92 conn=wye
! Tranformador de Distribuicao: F42115
New Load.3341602 Bus1=94057BF42115.1.2.3.0 Phases=3 model=8 ZIPV=[0.5 0 0.5 0 0 1 0] Kv=0.220 kW=13.92 PF=0.92 conn=wye
! Tranformador de Distribuicao: F42115
New Load.3453943 Bus1=94057BF42115.1.2.3.0 Phases=3 model=8 ZIPV=[0.5 0 0.5 0 0 1 0] Kv=0.220 kW=1.0 PF=0.92 conn=wye
! Tranformador de Distribuicao: F42115
New Load.3796050 Bus1=94057BF42115.3.1.0 Phases=2 model=8 ZIPV=[0.5 0 0.5 0 0 1 0] Kv=0.220 kW=11.43 PF=0.92 conn=wye
! Tranformador de Distribuicao: F42115
New Load.4242738 Bus1=94057BF42115.1.2.0 Phases=2 model=8 ZIPV=[0.5 0 0.5 0 0 1 0] Kv=0.220 kW=9.23 PF=0.92 conn=wye
! Tranformador de Distribuicao: F42115
New Load.4254016 Bus1=94057BF42115.1.2.3.0 Phases=3 model=8 ZIPV=[0.5 0 0.5 0 0 1 0] Kv=0.220 kW=11.2 PF=0.92 conn=wye
! Tranformador de Distribuicao: F42115
New Load.4392677 Bus1=94057BF42115.1.2.0 Phases=2 model=8 ZIPV=[0.5 0 0.5 0 0 1 0] Kv=0.220 kW=12.3 PF=0.92 conn=wye
! Tranformador de Distribuicao: F42115
New Load.4431393 Bus1=94057BF42115.1.2.3.0 Phases=3 model=8 ZIPV=[0.5 0 0.5 0 0 1 0] Kv=0.220 kW=7.01 PF=0.92 conn=wye
! Tranformador de Distribuicao: F42115
New Load.4633400 Bus1=94057BF42115.1.2.0 Phases=2 model=8 ZIPV=[0.5 0 0.5 0 0 1 0] Kv=0.220 kW=15.0 PF=0.92 conn=wye
! Tranformador de Distribuicao: F42115
New Load.4645234 Bus1=94057BF42115.1.2.3.0 Phases=3 model=8 ZIPV=[0.5 0 0.5 0 0 1 0] Kv=0.220 kW=15.0 PF=0.92 conn=wye
! Tranformador de Distribuicao: F42115
New Load.4742940 Bus1=94057BF42115.1.2.3.0 Phases=3 model=8 ZIPV=[0.5 0 0.5 0 0 1 0] Kv=0.220 kW=11.68 PF=0.92 conn=wye
! Tranformador de Distribuicao: F42115
New Load.4777139 Bus1=94057BF42115.1.2.3.0 Phases=3 model=8 ZIPV=[0.5 0 0.5 0 0 1 0] Kv=0.220 kW=12.3 PF=0.92 conn=wye
! Tranformador de Distribuicao: F42115
New Load.4975709 Bus1=94057BF42115.1.2.0 Phases=2 model=8 ZIPV=[0.5 0 0.5 0 0 1 0] Kv=0.220 kW=13.0 PF=0.92 conn=wye
! Tranformador de Distribuicao: F42115
New Load.5122860 Bus1=94057BF42115.1.2.3.0 Phases=3 model=8 ZIPV=[0.5 0 0.5 0 0 1 0] Kv=0.220 kW=8.04 PF=0.92 conn=wye
! Tranformador de Distribuicao: F42115
New Load.5241380 Bus1=94057BF42115.1.2.3.0 Phases=3 model=8 ZIPV=[0.5 0 0.5 0 0 1 0] Kv=0.220 kW=33.41 PF=0.92 conn=wye
! Tranformador de Distribuicao: F42115
New Load.5393096 Bus1=94057BF42115.1.2.3.0 Phases=3 model=8 ZIPV=[0.5 0 0.5 0 0 1 0] Kv=0.220 kW=10.92 PF=0.92 conn=wye
! Tranformador de Distribuicao: F42115
New Load.5450748 Bus1=94057BF42115.1.2.3.0 Phases=3 model=8 ZIPV=[0.5 0 0.5 0 0 1 0] Kv=0.220 kW=14.3 PF=0.92 conn=wye
! Tranformador de Distribuicao: F42115
New Load.5514918 Bus1=94057BF42115.1.2.3.0 Phases=3 model=8 ZIPV=[0.5 0 0.5 0 0 1 0] Kv=0.220 kW=6.69 PF=0.92 conn=wye
! Tranformador de Distribuicao: F42115
New Load.5845025 Bus1=94057BF42115.2.3.0 Phases=2 model=8 ZIPV=[0.5 0 0.5 0 0 1 0] Kv=0.220 kW=12.0 PF=0.92 conn=wye
! Tranformador de Distribuicao: F42115
New Load.6215885 Bus1=94057BF42115.1.2.3.0 Phases=3 model=8 ZIPV=[0.5 0 0.5 0 0 1 0] Kv=0.220 kW=13.05 PF=0.92 conn=wye
! Tranformador de Distribuicao: F42115
New Load.6253752 Bus1=94057BF42115.1.2.0 Phases=2 model=8 ZIPV=[0.5 0 0.5 0 0 1 0] Kv=0.220 kW=9.23 PF=0.92 conn=wye
! Tranformador de Distribuicao: F42115
New Load.6295164 Bus1=94057BF42115.3.1.0 Phases=2 model=8 ZIPV=[0.5 0 0.5 0 0 1 0] Kv=0.220 kW=15.0 PF=0.92 conn=wye
! Tranformador de Distribuicao: F42116
New Load.106638 Bus1=94048BF42116.1.2.3.0 Phases=3 model=8 ZIPV=[0.5 0 0.5 0 0 1 0] Kv=0.220 kW=19.65 PF=0.92 conn=wye
! Tranformador de Distribuicao: F42116
New Load.189150 Bus1=94048BF42116.1.2.3.0 Phases=3 model=8 ZIPV=[0.5 0 0.5 0 0 1 0] Kv=0.220 kW=31.8 PF=0.92 conn=wye
! Tranformador de Distribuicao: F42116
New Load.802255 Bus1=94048BF42116.1.2.3.0 Phases=3 model=8 ZIPV=[0.5 0 0.5 0 0 1 0] Kv=0.220 kW=12.03 PF=0.92 conn=wye
! Tranformador de Distribuicao: F42116
New Load.851068 Bus1=94048BF42116.1.2.3.0 Phases=3 model=8 ZIPV=[0.5 0 0.5 0 0 1 0] Kv=0.220 kW=12.75 PF=0.92 conn=wye
! Tranformador de Distribuicao: F42116
New Load.1135939 Bus1=94048BF42116.1.2.3.0 Phases=3 model=8 ZIPV=[0.5 0 0.5 0 0 1 0] Kv=0.220 kW=13.94 PF=0.92 conn=wye
! Tranformador de Distribuicao: F42116
New Load.1270854 Bus1=94048BF42116.1.2.3.0 Phases=3 model=8 ZIPV=[0.5 0 0.5 0 0 1 0] Kv=0.220 kW=2.3 PF=0.92 conn=wye
! Tranformador de Distribuicao: F42116
New Load.1331179 Bus1=94048BF42116.1.2.3.0 Phases=3 model=8 ZIPV=[0.5 0 0.5 0 0 1 0] Kv=0.220 kW=11.46 PF=0.92 conn=wye
! Tranformador de Distribuicao: F42116
New Load.1332742 Bus1=94048BF42116.1.0 Phases=1 model=8 ZIPV=[0.5 0 0.5 0 0 1 0] Kv=0.127 kW=1.76 PF=0.92 conn=wye
! Tranformador de Distribuicao: F42116
New Load.1463364 Bus1=94048BF42116.3.1.0 Phases=2 model=8 ZIPV=[0.5 0 0.5 0 0 1 0] Kv=0.220 kW=13.75 PF=0.92 conn=wye
! Tranformador de Distribuicao: F42116
New Load.1565561 Bus1=94048BF42116.3.1.0 Phases=2 model=8 ZIPV=[0.5 0 0.5 0 0 1 0] Kv=0.220 kW=3.96 PF=0.92 conn=wye
! Tranformador de Distribuicao: F42116
New Load.1677499 Bus1=94048BF42116.1.2.3.0 Phases=3 model=8 ZIPV=[0.5 0 0.5 0 0 1 0] Kv=0.220 kW=14.14 PF=0.92 conn=wye
! Tranformador de Distribuicao: F42116
New Load.1701774 Bus1=94048BF42116.1.2.3.0 Phases=3 model=8 ZIPV=[0.5 0 0.5 0 0 1 0] Kv=0.220 kW=12.66 PF=0.92 conn=wye
! Tranformador de Distribuicao: F42116
New Load.1702214 Bus1=94048BF42116.1.2.3.0 Phases=3 model=8 ZIPV=[0.5 0 0.5 0 0 1 0] Kv=0.220 kW=11.34 PF=0.92 conn=wye
! Tranformador de Distribuicao: F42116
New Load.1779718 Bus1=94048BF42116.1.2.3.0 Phases=3 model=8 ZIPV=[0.5 0 0.5 0 0 1 0] Kv=0.220 kW=14.61 PF=0.92 conn=wye
! Tranformador de Distribuicao: F42116
New Load.1806531 Bus1=94048BF42116.1.2.3.0 Phases=3 model=8 ZIPV=[0.5 0 0.5 0 0 1 0] Kv=0.220 kW=3.32 PF=0.92 conn=wye
! Tranformador de Distribuicao: F42116
New Load.1945641 Bus1=94048BF42116.1.2.0 Phases=2 model=8 ZIPV=[0.5 0 0.5 0 0 1 0] Kv=0.220 kW=11.88 PF=0.92 conn=wye
! Tranformador de Distribuicao: F42116
New Load.2118896 Bus1=94048BF42116.3.1.0 Phases=2 model=8 ZIPV=[0.5 0 0.5 0 0 1 0] Kv=0.220 kW=0.47 PF=0.92 conn=wye
! Tranformador de Distribuicao: F42116
New Load.2241391 Bus1=94048BF42116.1.2.3.0 Phases=3 model=8 ZIPV=[0.5 0 0.5 0 0 1 0] Kv=0.220 kW=15.0 PF=0.92 conn=wye
! Tranformador de Distribuicao: F42116
New Load.2394043 Bus1=94048BF42116.1.2.3.0 Phases=3 model=8 ZIPV=[0.5 0 0.5 0 0 1 0] Kv=0.220 kW=3.3 PF=0.92 conn=wye
! Tranformador de Distribuicao: F42116
New Load.2396953 Bus1=94048BF42116.1.2.0 Phases=2 model=8 ZIPV=[0.5 0 0.5 0 0 1 0] Kv=0.220 kW=14.32 PF=0.92 conn=wye
! Tranformador de Distribuicao: F42116
New Load.2721797 Bus1=94048BF42116.1.2.0 Phases=2 model=8 ZIPV=[0.5 0 0.5 0 0 1 0] Kv=0.220 kW=11.24 PF=0.92 conn=wye
! Tranformador de Distribuicao: F42116
New Load.2832840 Bus1=94048BF42116.1.2.0 Phases=2 model=8 ZIPV=[0.5 0 0.5 0 0 1 0] Kv=0.220 kW=4.25 PF=0.92 conn=wye
! Tranformador de Distribuicao: F42116
New Load.2898440 Bus1=94048BF42116.1.2.0 Phases=2 model=8 ZIPV=[0.5 0 0.5 0 0 1 0] Kv=0.220 kW=4.26 PF=0.92 conn=wye
! Tranformador de Distribuicao: F42116
New Load.3036776 Bus1=94048BF42116.1.2.3.0 Phases=3 model=8 ZIPV=[0.5 0 0.5 0 0 1 0] Kv=0.220 kW=2.7 PF=0.92 conn=wye
! Tranformador de Distribuicao: F42116
New Load.3156086 Bus1=94048BF42116.3.1.0 Phases=2 model=8 ZIPV=[0.5 0 0.5 0 0 1 0] Kv=0.220 kW=14.02 PF=0.92 conn=wye
! Tranformador de Distribuicao: F42116
New Load.3265945 Bus1=94048BF42116.1.2.3.0 Phases=3 model=8 ZIPV=[0.5 0 0.5 0 0 1 0] Kv=0.220 kW=14.47 PF=0.92 conn=wye
! Tranformador de Distribuicao: F42116
New Load.3309363 Bus1=94048BF42116.3.1.0 Phases=2 model=8 ZIPV=[0.5 0 0.5 0 0 1 0] Kv=0.220 kW=14.17 PF=0.92 conn=wye
! Tranformador de Distribuicao: F42116
New Load.3435959 Bus1=94048BF42116.1.2.3.0 Phases=3 model=8 ZIPV=[0.5 0 0.5 0 0 1 0] Kv=0.220 kW=12.11 PF=0.92 conn=wye
! Tranformador de Distribuicao: F42116
New Load.3737252 Bus1=94048BF42116.1.2.3.0 Phases=3 model=8 ZIPV=[0.5 0 0.5 0 0 1 0] Kv=0.220 kW=13.74 PF=0.92 conn=wye
! Tranformador de Distribuicao: F42116
New Load.3920211 Bus1=94048BF42116.1.2.3.0 Phases=3 model=8 ZIPV=[0.5 0 0.5 0 0 1 0] Kv=0.220 kW=21.54 PF=0.92 conn=wye
! Tranformador de Distribuicao: F42116
New Load.3933339 Bus1=94048BF42116.1.2.3.0 Phases=3 model=8 ZIPV=[0.5 0 0.5 0 0 1 0] Kv=0.220 kW=11.56 PF=0.92 conn=wye
! Tranformador de Distribuicao: F42116
New Load.3983500 Bus1=94048BF42116.1.2.3.0 Phases=3 model=8 ZIPV=[0.5 0 0.5 0 0 1 0] Kv=0.220 kW=13.57 PF=0.92 conn=wye
! Tranformador de Distribuicao: F42116
New Load.4141173 Bus1=94048BF42116.1.0 Phases=1 model=8 ZIPV=[0.5 0 0.5 0 0 1 0] Kv=0.127 kW=6.44 PF=0.92 conn=wye
! Tranformador de Distribuicao: F42116
New Load.4601500 Bus1=94048BF42116.1.2.3.0 Phases=3 model=8 ZIPV=[0.5 0 0.5 0 0 1 0] Kv=0.220 kW=10.23 PF=0.92 conn=wye
! Tranformador de Distribuicao: F42116
New Load.4709315 Bus1=94048BF42116.1.2.0 Phases=2 model=8 ZIPV=[0.5 0 0.5 0 0 1 0] Kv=0.220 kW=12.1 PF=0.92 conn=wye
! Tranformador de Distribuicao: F42116
New Load.4773671 Bus1=94048BF42116.3.1.0 Phases=2 model=8 ZIPV=[0.5 0 0.5 0 0 1 0] Kv=0.220 kW=14.94 PF=0.92 conn=wye
! Tranformador de Distribuicao: F42116
New Load.4826025 Bus1=94048BF42116.3.0 Phases=1 model=8 ZIPV=[0.5 0 0.5 0 0 1 0] Kv=0.127 kW=2.745 PF=0.92 conn=wye
! Tranformador de Distribuicao: F42116
New Load.5109373 Bus1=94048BF42116.1.2.3.0 Phases=3 model=8 ZIPV=[0.5 0 0.5 0 0 1 0] Kv=0.220 kW=47.4 PF=0.92 conn=wye
! Tranformador de Distribuicao: F42116
New Load.5159286 Bus1=94048BF42116.3.1.0 Phases=2 model=8 ZIPV=[0.5 0 0.5 0 0 1 0] Kv=0.220 kW=12.66 PF=0.92 conn=wye
! Tranformador de Distribuicao: F42116
New Load.5478447 Bus1=94048BF42116.1.2.3.0 Phases=3 model=8 ZIPV=[0.5 0 0.5 0 0 1 0] Kv=0.220 kW=14.28 PF=0.92 conn=wye
! Tranformador de Distribuicao: F42116
New Load.5520885 Bus1=94048BF42116.1.2.3.0 Phases=3 model=8 ZIPV=[0.5 0 0.5 0 0 1 0] Kv=0.220 kW=14.18 PF=0.92 conn=wye
! Tranformador de Distribuicao: F42116
New Load.5699856 Bus1=94048BF42116.1.2.3.0 Phases=3 model=8 ZIPV=[0.5 0 0.5 0 0 1 0] Kv=0.220 kW=7.84 PF=0.92 conn=wye
! Tranformador de Distribuicao: F42116
New Load.5765026 Bus1=94048BF42116.3.1.0 Phases=2 model=8 ZIPV=[0.5 0 0.5 0 0 1 0] Kv=0.220 kW=11.92 PF=0.92 conn=wye
! Tranformador de Distribuicao: F42116
New Load.5823752 Bus1=94048BF42116.3.1.0 Phases=2 model=8 ZIPV=[0.5 0 0.5 0 0 1 0] Kv=0.220 kW=11.38 PF=0.92 conn=wye
! Tranformador de Distribuicao: F42117
New Load.101263 Bus1=94060BF42117.2.3.0 Phases=2 model=8 ZIPV=[0.5 0 0.5 0 0 1 0] Kv=0.220 kW=15.0 PF=0.92 conn=wye
! Tranformador de Distribuicao: F42117
New Load.237758 Bus1=94060BF42117.1.2.3.0 Phases=3 model=8 ZIPV=[0.5 0 0.5 0 0 1 0] Kv=0.220 kW=13.22 PF=0.92 conn=wye
! Tranformador de Distribuicao: F42117
New Load.241375 Bus1=94060BF42117.1.2.0 Phases=2 model=8 ZIPV=[0.5 0 0.5 0 0 1 0] Kv=0.220 kW=13.03 PF=0.92 conn=wye
! Tranformador de Distribuicao: F42117
New Load.470800 Bus1=94060BF42117.1.2.3.0 Phases=3 model=8 ZIPV=[0.5 0 0.5 0 0 1 0] Kv=0.220 kW=15.0 PF=0.92 conn=wye
! Tranformador de Distribuicao: F42117
New Load.671980 Bus1=94060BF42117.1.2.0 Phases=2 model=8 ZIPV=[0.5 0 0.5 0 0 1 0] Kv=0.220 kW=11.2 PF=0.92 conn=wye
! Tranformador de Distribuicao: F42117
New Load.710710 Bus1=94060BF42117.1.2.3.0 Phases=3 model=8 ZIPV=[0.5 0 0.5 0 0 1 0] Kv=0.220 kW=3.35 PF=0.92 conn=wye
! Tranformador de Distribuicao: F42117
New Load.1165663 Bus1=94060BF42117.3.1.0 Phases=2 model=8 ZIPV=[0.5 0 0.5 0 0 1 0] Kv=0.220 kW=14.5 PF=0.92 conn=wye
! Tranformador de Distribuicao: F42117
New Load.1624411 Bus1=94060BF42117.1.2.0 Phases=2 model=8 ZIPV=[0.5 0 0.5 0 0 1 0] Kv=0.220 kW=10.28 PF=0.92 conn=wye
! Tranformador de Distribuicao: F42117
New Load.1962575 Bus1=94060BF42117.2.3.0 Phases=2 model=8 ZIPV=[0.5 0 0.5 0 0 1 0] Kv=0.220 kW=13.0 PF=0.92 conn=wye
! Tranformador de Distribuicao: F42117
New Load.2037767 Bus1=94060BF42117.1.2.0 Phases=2 model=8 ZIPV=[0.5 0 0.5 0 0 1 0] Kv=0.220 kW=10.55 PF=0.92 conn=wye
! Tranformador de Distribuicao: F42117
New Load.2525474 Bus1=94060BF42117.1.2.0 Phases=2 model=8 ZIPV=[0.5 0 0.5 0 0 1 0] Kv=0.220 kW=10.1 PF=0.92 conn=wye
! Tranformador de Distribuicao: F42117
New Load.3289182 Bus1=94060BF42117.1.2.0 Phases=2 model=8 ZIPV=[0.5 0 0.5 0 0 1 0] Kv=0.220 kW=13.24 PF=0.92 conn=wye
! Tranformador de Distribuicao: F42117
New Load.3414869 Bus1=94060BF42117.1.2.3.0 Phases=3 model=8 ZIPV=[0.5 0 0.5 0 0 1 0] Kv=0.220 kW=24.76 PF=0.92 conn=wye
! Tranformador de Distribuicao: F42117
New Load.3421969 Bus1=94060BF42117.1.2.3.0 Phases=3 model=8 ZIPV=[0.5 0 0.5 0 0 1 0] Kv=0.220 kW=13.05 PF=0.92 conn=wye
! Tranformador de Distribuicao: F42117
New Load.3702388 Bus1=94060BF42117.1.2.3.0 Phases=3 model=8 ZIPV=[0.5 0 0.5 0 0 1 0] Kv=0.220 kW=14.05 PF=0.92 conn=wye
! Tranformador de Distribuicao: F42117
New Load.4230047 Bus1=94060BF42117.1.2.3.0 Phases=3 model=8 ZIPV=[0.5 0 0.5 0 0 1 0] Kv=0.220 kW=13.52 PF=0.92 conn=wye
! Tranformador de Distribuicao: F42117
New Load.4628304 Bus1=94060BF42117.1.2.3.0 Phases=3 model=8 ZIPV=[0.5 0 0.5 0 0 1 0] Kv=0.220 kW=14.49 PF=0.92 conn=wye
! Tranformador de Distribuicao: F42117
New Load.4637545 Bus1=94060BF42117.2.3.0 Phases=2 model=8 ZIPV=[0.5 0 0.5 0 0 1 0] Kv=0.220 kW=11.99 PF=0.92 conn=wye
! Tranformador de Distribuicao: F42117
New Load.4931901 Bus1=94060BF42117.1.2.0 Phases=2 model=8 ZIPV=[0.5 0 0.5 0 0 1 0] Kv=0.220 kW=12.59 PF=0.92 conn=wye
! Tranformador de Distribuicao: F42117
New Load.5108020 Bus1=94060BF42117.1.2.3.0 Phases=3 model=8 ZIPV=[0.5 0 0.5 0 0 1 0] Kv=0.220 kW=4.28 PF=0.92 conn=wye
! Tranformador de Distribuicao: F42117
New Load.5502122 Bus1=94060BF42117.1.2.3.0 Phases=3 model=8 ZIPV=[0.5 0 0.5 0 0 1 0] Kv=0.220 kW=12.3 PF=0.92 conn=wye
! Tranformador de Distribuicao: F42117
New Load.6123307 Bus1=94060BF42117.1.2.0 Phases=2 model=8 ZIPV=[0.5 0 0.5 0 0 1 0] Kv=0.220 kW=14.805 PF=0.92 conn=wye
! Tranformador de Distribuicao: F42117
New Load.6154783 Bus1=94060BF42117.1.2.3.0 Phases=3 model=8 ZIPV=[0.5 0 0.5 0 0 1 0] Kv=0.220 kW=13.22 PF=0.92 conn=wye
! Tranformador de Distribuicao: F42117
New Load.6255343 Bus1=94060BF42117.3.1.0 Phases=2 model=8 ZIPV=[0.5 0 0.5 0 0 1 0] Kv=0.220 kW=14.37 PF=0.92 conn=wye
! Tranformador de Distribuicao: F42118
New Load.5616137 Bus1=104146537BF42118.1.0 Phases=1 model=8 ZIPV=[0.5 0 0.5 0 0 1 0] Kv=0.127 kW=2.5 PF=0.92 conn=wye
! Tranformador de Distribuicao: F42119
New Load.381643 Bus1=94067BF42119.1.2.3.0 Phases=3 model=8 ZIPV=[0.5 0 0.5 0 0 1 0] Kv=0.220 kW=10.52 PF=0.92 conn=wye
! Tranformador de Distribuicao: F42119
New Load.429952 Bus1=94067BF42119.3.1.0 Phases=2 model=8 ZIPV=[0.5 0 0.5 0 0 1 0] Kv=0.220 kW=5.52 PF=0.92 conn=wye
! Tranformador de Distribuicao: F42119
New Load.488846 Bus1=94067BF42119.1.2.3.0 Phases=3 model=8 ZIPV=[0.5 0 0.5 0 0 1 0] Kv=0.220 kW=5.0 PF=0.92 conn=wye
! Tranformador de Distribuicao: F42119
New Load.837246 Bus1=94067BF42119.1.2.3.0 Phases=3 model=8 ZIPV=[0.5 0 0.5 0 0 1 0] Kv=0.220 kW=10.89 PF=0.92 conn=wye
! Tranformador de Distribuicao: F42119
New Load.900023 Bus1=94067BF42119.2.3.0 Phases=2 model=8 ZIPV=[0.5 0 0.5 0 0 1 0] Kv=0.220 kW=2.045 PF=0.92 conn=wye
! Tranformador de Distribuicao: F42119
New Load.1613298 Bus1=94067BF42119.1.2.0 Phases=2 model=8 ZIPV=[0.5 0 0.5 0 0 1 0] Kv=0.220 kW=10.44 PF=0.92 conn=wye
! Tranformador de Distribuicao: F42119
New Load.1693167 Bus1=94067BF42119.1.2.0 Phases=2 model=8 ZIPV=[0.5 0 0.5 0 0 1 0] Kv=0.220 kW=4.37 PF=0.92 conn=wye
! Tranformador de Distribuicao: F42119
New Load.1847456 Bus1=94067BF42119.2.3.0 Phases=2 model=8 ZIPV=[0.5 0 0.5 0 0 1 0] Kv=0.220 kW=8.79 PF=0.92 conn=wye
! Tranformador de Distribuicao: F42119
New Load.1875946 Bus1=94067BF42119.3.1.0 Phases=2 model=8 ZIPV=[0.5 0 0.5 0 0 1 0] Kv=0.220 kW=10.54 PF=0.92 conn=wye
! Tranformador de Distribuicao: F42119
New Load.3096815 Bus1=94067BF42119.1.2.3.0 Phases=3 model=8 ZIPV=[0.5 0 0.5 0 0 1 0] Kv=0.220 kW=2.7 PF=0.92 conn=wye
! Tranformador de Distribuicao: F42119
New Load.3173705 Bus1=94067BF42119.1.2.0 Phases=2 model=8 ZIPV=[0.5 0 0.5 0 0 1 0] Kv=0.220 kW=8.14 PF=0.92 conn=wye
! Tranformador de Distribuicao: F42119
New Load.3673879 Bus1=94067BF42119.2.3.0 Phases=2 model=8 ZIPV=[0.5 0 0.5 0 0 1 0] Kv=0.220 kW=2.7 PF=0.92 conn=wye
! Tranformador de Distribuicao: F42119
New Load.4160569 Bus1=94067BF42119.1.2.0 Phases=2 model=8 ZIPV=[0.5 0 0.5 0 0 1 0] Kv=0.220 kW=2.7 PF=0.92 conn=wye
! Tranformador de Distribuicao: F42119
New Load.4460690 Bus1=94067BF42119.3.1.0 Phases=2 model=8 ZIPV=[0.5 0 0.5 0 0 1 0] Kv=0.220 kW=2.7 PF=0.92 conn=wye
! Tranformador de Distribuicao: F42119
New Load.4648352 Bus1=94067BF42119.1.2.3.0 Phases=3 model=8 ZIPV=[0.5 0 0.5 0 0 1 0] Kv=0.220 kW=5.67 PF=0.92 conn=wye
! Tranformador de Distribuicao: F42119
New Load.4816982 Bus1=94067BF42119.1.2.3.0 Phases=3 model=8 ZIPV=[0.5 0 0.5 0 0 1 0] Kv=0.220 kW=14.21 PF=0.92 conn=wye
! Tranformador de Distribuicao: F42119
New Load.4967901 Bus1=94067BF42119.2.3.0 Phases=2 model=8 ZIPV=[0.5 0 0.5 0 0 1 0] Kv=0.220 kW=2.7 PF=0.92 conn=wye
! Tranformador de Distribuicao: F42119
New Load.5282159 Bus1=94067BF42119.3.1.0 Phases=2 model=8 ZIPV=[0.5 0 0.5 0 0 1 0] Kv=0.220 kW=11.56 PF=0.92 conn=wye
! Tranformador de Distribuicao: F42121
New Load.1885689 Bus1=94072BF42121.3.0 Phases=1 model=8 ZIPV=[0.5 0 0.5 0 0 1 0] Kv=0.127 kW=0.0 PF=0.92 conn=wye
! Tranformador de Distribuicao: F42121
New Load.3423088 Bus1=94072BF42121.3.1.0 Phases=2 model=8 ZIPV=[0.5 0 0.5 0 0 1 0] Kv=0.220 kW=12.65 PF=0.92 conn=wye
! Tranformador de Distribuicao: F42122
New Load.947030 Bus1=94081BF42122.1.2.3.0 Phases=3 model=8 ZIPV=[0.5 0 0.5 0 0 1 0] Kv=0.220 kW=14.17 PF=0.92 conn=wye
! Tranformador de Distribuicao: F42122
New Load.1235298 Bus1=94081BF42122.1.2.3.0 Phases=3 model=8 ZIPV=[0.5 0 0.5 0 0 1 0] Kv=0.220 kW=6.0 PF=0.92 conn=wye
! Tranformador de Distribuicao: F42122
New Load.1511628 Bus1=94081BF42122.1.2.3.0 Phases=3 model=8 ZIPV=[0.5 0 0.5 0 0 1 0] Kv=0.220 kW=32.0 PF=0.92 conn=wye
! Tranformador de Distribuicao: F42122
New Load.2203122 Bus1=94081BF42122.1.2.3.0 Phases=3 model=8 ZIPV=[0.5 0 0.5 0 0 1 0] Kv=0.220 kW=14.37 PF=0.92 conn=wye
! Tranformador de Distribuicao: F42122
New Load.2585663 Bus1=94081BF42122.1.2.3.0 Phases=3 model=8 ZIPV=[0.5 0 0.5 0 0 1 0] Kv=0.220 kW=16.27 PF=0.92 conn=wye
! Tranformador de Distribuicao: F42122
New Load.3135677 Bus1=94081BF42122.1.2.0 Phases=2 model=8 ZIPV=[0.5 0 0.5 0 0 1 0] Kv=0.220 kW=7.0 PF=0.92 conn=wye
! Tranformador de Distribuicao: F42122
New Load.3242497 Bus1=94081BF42122.1.2.0 Phases=2 model=8 ZIPV=[0.5 0 0.5 0 0 1 0] Kv=0.220 kW=8.0 PF=0.92 conn=wye
! Tranformador de Distribuicao: F42122
New Load.4304907 Bus1=94081BF42122.1.2.3.0 Phases=3 model=8 ZIPV=[0.5 0 0.5 0 0 1 0] Kv=0.220 kW=2.0 PF=0.92 conn=wye
! Tranformador de Distribuicao: F42122
New Load.5163436 Bus1=94081BF42122.1.2.3.0 Phases=3 model=8 ZIPV=[0.5 0 0.5 0 0 1 0] Kv=0.220 kW=36.47 PF=0.92 conn=wye
! Tranformador de Distribuicao: F42122
New Load.5620314 Bus1=94081BF42122.1.2.0 Phases=2 model=8 ZIPV=[0.5 0 0.5 0 0 1 0] Kv=0.220 kW=12.06 PF=0.92 conn=wye
! Tranformador de Distribuicao: F42122
New Load.5967918 Bus1=94081BF42122.1.2.3.0 Phases=3 model=8 ZIPV=[0.5 0 0.5 0 0 1 0] Kv=0.220 kW=21.0 PF=0.92 conn=wye
! Tranformador de Distribuicao: F42124
New Load.43617 Bus1=91181BF42124.3.1.0 Phases=2 model=8 ZIPV=[0.5 0 0.5 0 0 1 0] Kv=0.220 kW=8.4 PF=0.92 conn=wye
! Tranformador de Distribuicao: F42124
New Load.188672 Bus1=91181BF42124.1.2.0 Phases=2 model=8 ZIPV=[0.5 0 0.5 0 0 1 0] Kv=0.220 kW=10.97 PF=0.92 conn=wye
! Tranformador de Distribuicao: F42124
New Load.375116 Bus1=91181BF42124.1.2.0 Phases=2 model=8 ZIPV=[0.5 0 0.5 0 0 1 0] Kv=0.220 kW=10.0 PF=0.92 conn=wye
! Tranformador de Distribuicao: F42124
New Load.404288 Bus1=91181BF42124.2.3.0 Phases=2 model=8 ZIPV=[0.5 0 0.5 0 0 1 0] Kv=0.220 kW=11.22 PF=0.92 conn=wye
! Tranformador de Distribuicao: F42124
New Load.1151250 Bus1=91181BF42124.1.2.3.0 Phases=3 model=8 ZIPV=[0.5 0 0.5 0 0 1 0] Kv=0.220 kW=12.21 PF=0.92 conn=wye
! Tranformador de Distribuicao: F42124
New Load.1344551 Bus1=91181BF42124.1.2.3.0 Phases=3 model=8 ZIPV=[0.5 0 0.5 0 0 1 0] Kv=0.220 kW=45.48 PF=0.92 conn=wye
! Tranformador de Distribuicao: F42124
New Load.1519066 Bus1=91181BF42124.1.0 Phases=1 model=8 ZIPV=[0.5 0 0.5 0 0 1 0] Kv=0.127 kW=4.0 PF=0.92 conn=wye
! Tranformador de Distribuicao: F42124
New Load.1742564 Bus1=91181BF42124.2.3.0 Phases=2 model=8 ZIPV=[0.5 0 0.5 0 0 1 0] Kv=0.220 kW=6.215 PF=0.92 conn=wye
! Tranformador de Distribuicao: F42124
New Load.1987087 Bus1=91181BF42124.1.2.3.0 Phases=3 model=8 ZIPV=[0.5 0 0.5 0 0 1 0] Kv=0.220 kW=12.0 PF=0.92 conn=wye
! Tranformador de Distribuicao: F42124
New Load.2017095 Bus1=91181BF42124.1.2.0 Phases=2 model=8 ZIPV=[0.5 0 0.5 0 0 1 0] Kv=0.220 kW=12.0 PF=0.92 conn=wye
! Tranformador de Distribuicao: F42124
New Load.2029916 Bus1=91181BF42124.1.2.0 Phases=2 model=8 ZIPV=[0.5 0 0.5 0 0 1 0] Kv=0.220 kW=14.1 PF=0.92 conn=wye
! Tranformador de Distribuicao: F42124
New Load.2434599 Bus1=91181BF42124.1.2.0 Phases=2 model=8 ZIPV=[0.5 0 0.5 0 0 1 0] Kv=0.220 kW=5.0 PF=0.92 conn=wye
! Tranformador de Distribuicao: F42124
New Load.2561475 Bus1=91181BF42124.1.2.0 Phases=2 model=8 ZIPV=[0.5 0 0.5 0 0 1 0] Kv=0.220 kW=11.2 PF=0.92 conn=wye
! Tranformador de Distribuicao: F42124
New Load.2654398 Bus1=91181BF42124.1.2.0 Phases=2 model=8 ZIPV=[0.5 0 0.5 0 0 1 0] Kv=0.220 kW=14.5 PF=0.92 conn=wye
! Tranformador de Distribuicao: F42124
New Load.2840394 Bus1=91181BF42124.3.0 Phases=1 model=8 ZIPV=[0.5 0 0.5 0 0 1 0] Kv=0.127 kW=1.0 PF=0.92 conn=wye
! Tranformador de Distribuicao: F42124
New Load.2981136 Bus1=91181BF42124.3.0 Phases=1 model=8 ZIPV=[0.5 0 0.5 0 0 1 0] Kv=0.127 kW=2.0 PF=0.92 conn=wye
! Tranformador de Distribuicao: F42124
New Load.3081539 Bus1=91181BF42124.1.2.3.0 Phases=3 model=8 ZIPV=[0.5 0 0.5 0 0 1 0] Kv=0.220 kW=34.14 PF=0.92 conn=wye
! Tranformador de Distribuicao: F42124
New Load.3364532 Bus1=91181BF42124.1.2.3.0 Phases=3 model=8 ZIPV=[0.5 0 0.5 0 0 1 0] Kv=0.220 kW=14.14 PF=0.92 conn=wye
! Tranformador de Distribuicao: F42124
New Load.3488983 Bus1=91181BF42124.3.1.0 Phases=2 model=8 ZIPV=[0.5 0 0.5 0 0 1 0] Kv=0.220 kW=4.865 PF=0.92 conn=wye
! Tranformador de Distribuicao: F42124
New Load.3551196 Bus1=91181BF42124.1.2.3.0 Phases=3 model=8 ZIPV=[0.5 0 0.5 0 0 1 0] Kv=0.220 kW=15.0 PF=0.92 conn=wye
! Tranformador de Distribuicao: F42124
New Load.3597900 Bus1=91181BF42124.3.1.0 Phases=2 model=8 ZIPV=[0.5 0 0.5 0 0 1 0] Kv=0.220 kW=12.0 PF=0.92 conn=wye
! Tranformador de Distribuicao: F42124
New Load.3613551 Bus1=91181BF42124.1.2.3.0 Phases=3 model=8 ZIPV=[0.5 0 0.5 0 0 1 0] Kv=0.220 kW=6.0 PF=0.92 conn=wye
! Tranformador de Distribuicao: F42124
New Load.3642505 Bus1=91181BF42124.3.1.0 Phases=2 model=8 ZIPV=[0.5 0 0.5 0 0 1 0] Kv=0.220 kW=6.99 PF=0.92 conn=wye
! Tranformador de Distribuicao: F42124
New Load.3702518 Bus1=91181BF42124.1.2.3.0 Phases=3 model=8 ZIPV=[0.5 0 0.5 0 0 1 0] Kv=0.220 kW=29.0 PF=0.92 conn=wye
! Tranformador de Distribuicao: F42124
New Load.3741215 Bus1=91181BF42124.1.2.0 Phases=2 model=8 ZIPV=[0.5 0 0.5 0 0 1 0] Kv=0.220 kW=2.37 PF=0.92 conn=wye
! Tranformador de Distribuicao: F42124
New Load.3931490 Bus1=91181BF42124.1.2.3.0 Phases=3 model=8 ZIPV=[0.5 0 0.5 0 0 1 0] Kv=0.220 kW=11.615 PF=0.92 conn=wye
! Tranformador de Distribuicao: F42124
New Load.4144876 Bus1=91181BF42124.2.3.0 Phases=2 model=8 ZIPV=[0.5 0 0.5 0 0 1 0] Kv=0.220 kW=13.17 PF=0.92 conn=wye
! Tranformador de Distribuicao: F42124
New Load.4193814 Bus1=91181BF42124.3.1.0 Phases=2 model=8 ZIPV=[0.5 0 0.5 0 0 1 0] Kv=0.220 kW=11.0 PF=0.92 conn=wye
! Tranformador de Distribuicao: F42124
New Load.4249947 Bus1=91181BF42124.1.2.0 Phases=2 model=8 ZIPV=[0.5 0 0.5 0 0 1 0] Kv=0.220 kW=1.25 PF=0.92 conn=wye
! Tranformador de Distribuicao: F42124
New Load.4335835 Bus1=91181BF42124.1.2.3.0 Phases=3 model=8 ZIPV=[0.5 0 0.5 0 0 1 0] Kv=0.220 kW=10.75 PF=0.92 conn=wye
! Tranformador de Distribuicao: F42124
New Load.4409845 Bus1=91181BF42124.1.0 Phases=1 model=8 ZIPV=[0.5 0 0.5 0 0 1 0] Kv=0.127 kW=9.0 PF=0.92 conn=wye
! Tranformador de Distribuicao: F42124
New Load.4433956 Bus1=91181BF42124.1.2.0 Phases=2 model=8 ZIPV=[0.5 0 0.5 0 0 1 0] Kv=0.220 kW=13.9 PF=0.92 conn=wye
! Tranformador de Distribuicao: F42124
New Load.4467219 Bus1=91181BF42124.1.2.3.0 Phases=3 model=8 ZIPV=[0.5 0 0.5 0 0 1 0] Kv=0.220 kW=15.0 PF=0.92 conn=wye
! Tranformador de Distribuicao: F42124
New Load.4575717 Bus1=91181BF42124.2.3.0 Phases=2 model=8 ZIPV=[0.5 0 0.5 0 0 1 0] Kv=0.220 kW=6.24 PF=0.92 conn=wye
! Tranformador de Distribuicao: F42124
New Load.4673542 Bus1=91181BF42124.1.2.3.0 Phases=3 model=8 ZIPV=[0.5 0 0.5 0 0 1 0] Kv=0.220 kW=14.73 PF=0.92 conn=wye
! Tranformador de Distribuicao: F42124
New Load.4788389 Bus1=91181BF42124.2.3.0 Phases=2 model=8 ZIPV=[0.5 0 0.5 0 0 1 0] Kv=0.220 kW=2.37 PF=0.92 conn=wye
! Tranformador de Distribuicao: F42124
New Load.4843515 Bus1=91181BF42124.1.2.0 Phases=2 model=8 ZIPV=[0.5 0 0.5 0 0 1 0] Kv=0.220 kW=2.37 PF=0.92 conn=wye
! Tranformador de Distribuicao: F42124
New Load.4893271 Bus1=91181BF42124.1.2.0 Phases=2 model=8 ZIPV=[0.5 0 0.5 0 0 1 0] Kv=0.220 kW=2.8 PF=0.92 conn=wye
! Tranformador de Distribuicao: F42124
New Load.5060124 Bus1=91181BF42124.1.2.0 Phases=2 model=8 ZIPV=[0.5 0 0.5 0 0 1 0] Kv=0.220 kW=6.69 PF=0.92 conn=wye
! Tranformador de Distribuicao: F42124
New Load.5349432 Bus1=91181BF42124.3.1.0 Phases=2 model=8 ZIPV=[0.5 0 0.5 0 0 1 0] Kv=0.220 kW=14.0 PF=0.92 conn=wye
! Tranformador de Distribuicao: F42124
New Load.5777173 Bus1=91181BF42124.1.2.0 Phases=2 model=8 ZIPV=[0.5 0 0.5 0 0 1 0] Kv=0.220 kW=4.0 PF=0.92 conn=wye
! Tranformador de Distribuicao: F42124
New Load.5836685 Bus1=91181BF42124.1.2.3.0 Phases=3 model=8 ZIPV=[0.5 0 0.5 0 0 1 0] Kv=0.220 kW=4.71 PF=0.92 conn=wye
! Tranformador de Distribuicao: F42124
New Load.6007537 Bus1=91181BF42124.3.0 Phases=1 model=8 ZIPV=[0.5 0 0.5 0 0 1 0] Kv=0.127 kW=6.63 PF=0.92 conn=wye
! Tranformador de Distribuicao: F42124
...